McPAT (version 1.3 of Feb, 2015) is computing the target processor...
 

McPAT (version 1.3 of Feb, 2015) results  (current print level is 5)
*****************************************************************************************
  Technology 32 nm
  Using Long Channel Devices When Appropriate
  Interconnect metal projection= aggressive interconnect technology projection
  Core clock Rate(MHz) 2000

*****************************************************************************************
Processor: 
  Area = 26.6213 mm^2
  Peak Power = 18.5799 W
  Total Leakage = 8.23162 W
  Peak Dynamic = 10.3483 W
  Subthreshold Leakage = 7.75506 W
  Subthreshold Leakage with power gating = 3.90277 W
  Gate Leakage = 0.476551 W
  Runtime Dynamic = 2.8802 W

  Total Cores: 1 cores 
  Device Type= ITRS high performance device type
    Area = 18.5475 mm^2
    Peak Dynamic = 7.53581 W
    Subthreshold Leakage = 6.23676 W
    Subthreshold Leakage with power gating = 3.21163 W
    Gate Leakage = 0.357986 W
    Runtime Dynamic = 2.64696 W

  Total First Level Directory: 
  Device Type= ITRS high performance device type
    Area = 0.29937 mm^2
    Peak Dynamic = 0.237898 W
    Subthreshold Leakage = 0.0545283 W
    Subthreshold Leakage with power gating = 0.0245377 W
    Gate Leakage = 0.00935703 W
    Runtime Dynamic = 0 W

  Total Second Level Directory: 
  Device Type= ITRS high performance device type
    Area = 5.13548 mm^2
    Peak Dynamic = 0.2427 W
    Subthreshold Leakage = 0.921432 W
    Subthreshold Leakage with power gating = 0.51927 W
    Gate Leakage = 0.0896356 W
    Runtime Dynamic = 0 W

  Total MCs: 1 Memory Controllers 
  Device Type= ITRS high performance device type
    Area = 2.63891 mm^2
    Peak Dynamic = 2.33184 W
    Subthreshold Leakage = 0.542346 W
    Subthreshold Leakage with power gating = 0.147333 W
    Gate Leakage = 0.0195721 W
    Runtime Dynamic = 0.23324 W

*****************************************************************************************
Core:
      Area = 18.5475 mm^2
      Peak Dynamic = 7.53581 W
      Subthreshold Leakage = 6.23676 W
      Subthreshold Leakage with power gating = 3.21163 W
      Gate Leakage = 0.357986 W
      Runtime Dynamic = 2.64696 W

      Instruction Fetch Unit:
        Area = 0.630322 mm^2
        Peak Dynamic = 0.95098 W
        Subthreshold Leakage = 0.187819 W
        Subthreshold Leakage with power gating = 0.0951466 W
        Gate Leakage = 0.0128596 W
        Runtime Dynamic = 0.331008 W

          Instruction Cache:
            Area = 0.359633 mm^2
            Peak Dynamic = 0.111026 W
            Subthreshold Leakage = 0.113947 W
            Subthreshold Leakage with power gating = 0.0575303 W
            Gate Leakage = 0.00628282 W
            Runtime Dynamic = 0.0216141 W

          Branch Target Buffer:
            Area = 0.180903 mm^2
            Peak Dynamic = 0.023281 W
            Subthreshold Leakage = 0.0321044 W
            Subthreshold Leakage with power gating = 0.0180023 W
            Gate Leakage = 0.00069797 W
            Runtime Dynamic = 0.026332 W

          Branch Predictor:
            Area = 0.0143689 mm^2
            Peak Dynamic = 0.00493123 W
            Subthreshold Leakage = 0.0017045 W
            Subthreshold Leakage with power gating = 0.000931946 W
            Gate Leakage = 9.20327e-05 W
            Runtime Dynamic = 0.00146748 W

              Global Predictor:
                Area = 0.00201249 mm^2
                Peak Dynamic = 0.00063135 W
                Subthreshold Leakage = 0.000284916 W
                Subthreshold Leakage with power gating = 0.000156878 W
                Gate Leakage = 1.58429e-05 W
                Runtime Dynamic = 0.000348664 W

              Local Predictor:
              L1_Local Predictor:
                Area = 0.00201249 mm^2
                Peak Dynamic = 0.00063135 W
                Subthreshold Leakage = 0.000284916 W
                Subthreshold Leakage with power gating = 0.000156878 W
                Gate Leakage = 1.58429e-05 W
                Runtime Dynamic = 0.000348664 W

              L2_Local Predictor:
                Area = 0.00201249 mm^2
                Peak Dynamic = 0.00063135 W
                Subthreshold Leakage = 0.000284916 W
                Subthreshold Leakage with power gating = 0.000156878 W
                Gate Leakage = 1.58429e-05 W
                Runtime Dynamic = 0.000348664 W

              Chooser:
                Area = 0.00201249 mm^2
                Peak Dynamic = 0.00063135 W
                Subthreshold Leakage = 0.000284916 W
                Subthreshold Leakage with power gating = 0.000156878 W
                Gate Leakage = 1.58429e-05 W
                Runtime Dynamic = 0.000348664 W

              RAS:
                Area = 0.00631896 mm^2
                Peak Dynamic = 0.00240583 W
                Subthreshold Leakage = 0.000564834 W
                Subthreshold Leakage with power gating = 0.000304433 W
                Gate Leakage = 2.86612e-05 W
                Runtime Dynamic = 7.28268e-05 W

          Instruction Buffer:
            Area = 0.025165 mm^2
            Peak Dynamic = 0.466138 W
            Subthreshold Leakage = 0.00608044 W
            Subthreshold Leakage with power gating = 0.00338964 W
            Gate Leakage = 0.000253418 W
            Runtime Dynamic = 0.132657 W

          Instruction Decoder:
            Area = 0.0121409 mm^2
            Peak Dynamic = 0.314767 W
            Subthreshold Leakage = 0.00264552 W
            Subthreshold Leakage with power gating = 0.00119048 W
            Gate Leakage = 0.00013906 W
            Runtime Dynamic = 0.089579 W

      Renaming Unit:
        Area = 0.275068 mm^2
        Peak Dynamic = 1.56676 W
        Subthreshold Leakage = 0.0373833 W
        Subthreshold Leakage with power gating = 0.0175758 W
        Gate Leakage = 0.00571798 W
        Runtime Dynamic = 0.431296 W

          Int Front End RAT with 1 internal checkpoints:
            Area = 0.0797591 mm^2
            Peak Dynamic = 1.08898 W
            Subthreshold Leakage = 0.00179911 W
            Subthreshold Leakage with power gating = 0.00100075 W
            Gate Leakage = 0.000105907 W
            Runtime Dynamic = 0.184907 W

          FP Front End RAT with 1 internal checkpoints:
            Area = 0.00841877 mm^2
            Peak Dynamic = 0.260769 W
            Subthreshold Leakage = 0.00049712 W
            Subthreshold Leakage with power gating = 0.000286898 W
            Gate Leakage = 3.6501e-05 W
            Runtime Dynamic = 5.12714e-12 W

          Free List:
            Area = 0.116722 mm^2
            Peak Dynamic = 0.0580177 W
            Subthreshold Leakage = 0.00241283 W
            Subthreshold Leakage with power gating = 0.00141632 W
            Gate Leakage = 0.00011355 W
            Runtime Dynamic = 0.00895481 W

          FP Free List:
            Area = 0.0320567 mm^2
            Peak Dynamic = 0.0356446 W
            Subthreshold Leakage = 0.00133682 W
            Subthreshold Leakage with power gating = 0.000769969 W
            Gate Leakage = 6.77253e-05 W
            Runtime Dynamic = 1.24549e-11 W

      Load Store Unit:
        Area = 2.01302 mm^2
        Peak Dynamic = 0.952321 W
        Subthreshold Leakage = 0.469873 W
        Subthreshold Leakage with power gating = 0.226984 W
        Gate Leakage = 0.0315577 W
        Runtime Dynamic = 0.261789 W

          Data Cache:
            Area = 1.53373 mm^2
            Peak Dynamic = 0.821424 W
            Subthreshold Leakage = 0.389547 W
            Subthreshold Leakage with power gating = 0.190837 W
            Gate Leakage = 0.0228379 W
            Runtime Dynamic = 0.0638791 W

          LoadQ:
            Area = 0.130821 mm^2
            Peak Dynamic = 0.0500297 W
            Subthreshold Leakage = 0.0244944 W
            Subthreshold Leakage with power gating = 0.0110225 W
            Gate Leakage = 0.00166272 W
            Runtime Dynamic = 0.0461837 W

          StoreQ:
            Area = 0.130821 mm^2
            Peak Dynamic = 0.0500297 W
            Subthreshold Leakage = 0.0244944 W
            Subthreshold Leakage with power gating = 0.0110225 W
            Gate Leakage = 0.00166272 W
            Runtime Dynamic = 0.0923674 W

      Memory Management Unit:
        Area = 0.142925 mm^2
        Peak Dynamic = 0.0933615 W
        Subthreshold Leakage = 0.0523216 W
        Subthreshold Leakage with power gating = 0.0235447 W
        Runtime Dynamic = 0.148397 W

          Itlb:
            Area = 0.0250813 mm^2
            Peak Dynamic = 0.00439104 W
            Subthreshold Leakage = 0.00613921 W
            Subthreshold Leakage with power gating = 0.00276265 W
            Gate Leakage = 0.000387445 W
            Runtime Dynamic = 0 W

          Dtlb:
            Area = 0.079733 mm^2
            Peak Dynamic = 0.0118773 W
            Subthreshold Leakage = 0.014845 W
            Subthreshold Leakage with power gating = 0.00668025 W
            Gate Leakage = 0.000967156 W
            Runtime Dynamic = 0 W

      Execution Unit:
        Area = 4.45835 mm^2
        Peak Dynamic = 3.97239 W
        Subthreshold Leakage = 0.970604 W
        Subthreshold Leakage with power gating = 0.445053 W
        Runtime Dynamic = 1.47445 W

          Register Files:
            Area = 2.26627 mm^2
            Peak Dynamic = 1.94234 W
            Subthreshold Leakage = 0.0669989 W
            Subthreshold Leakage with power gating = 0.0363825 W
            Gate Leakage = 0.00360427 W
            Runtime Dynamic = 0.185115 W

              Integer RF:
                Area = 1.13314 mm^2
                Peak Dynamic = 1.56038 W
                Subthreshold Leakage = 0.0334994 W
                Subthreshold Leakage with power gating = 0.0181912 W
                Gate Leakage = 0.00180213 W
                Runtime Dynamic = 0.185115 W

              Floating Point RF:
                Area = 1.13314 mm^2
                Peak Dynamic = 0.381954 W
                Subthreshold Leakage = 0.0334994 W
                Subthreshold Leakage with power gating = 0.0181912 W
                Gate Leakage = 0.00180213 W
                Runtime Dynamic = 2.49063e-10 W

          Instruction Scheduler:
            Area = 0.575485 mm^2
            Peak Dynamic = 0.935371 W
            Subthreshold Leakage = 0.0337528 W
            Subthreshold Leakage with power gating = 0.0172368 W
            Gate Leakage = 0.00198468 W
            Runtime Dynamic = 0.427851 W

              Instruction Window:
                Area = 0.0954253 mm^2
                Peak Dynamic = 0.219765 W
                Subthreshold Leakage = 0.0115134 W
                Subthreshold Leakage with power gating = 0.00518104 W
                Gate Leakage = 0.000818123 W
                Runtime Dynamic = 0.101213 W

              FP Instruction Window:
                Area = 0.0273636 mm^2
                Peak Dynamic = 0.0631417 W
                Subthreshold Leakage = 0.00504417 W
                Subthreshold Leakage with power gating = 0.00226988 W
                Gate Leakage = 0.000372897 W
                Runtime Dynamic = 0 W

              ROB:
                Area = 0.452696 mm^2
                Peak Dynamic = 0.652464 W
                Subthreshold Leakage = 0.0171952 W
                Subthreshold Leakage with power gating = 0.0097859 W
                Gate Leakage = 0.000793664 W
                Runtime Dynamic = 0.326637 W

          Integer ALUs (Count: 1 ):
            Area = 0.0549349 mm^2
            Peak Dynamic = 0.164499 W
            Subthreshold Leakage = 0.0629008 W
            Subthreshold Leakage with power gating = 0.0283054 W
            Gate Leakage = 0.00430246 W
            Runtime Dynamic = 0.278689 W

          Floating Point Units (FPUs) (Count: 1 ):
            Area = 1.17785 mm^2
            Peak Dynamic = 0.148049 W
            Subthreshold Leakage = 0.337162 W
            Subthreshold Leakage with power gating = 0.151723 W
            Gate Leakage = 0.0230621 W
            Runtime Dynamic = 0.166873 W

          Complex ALUs (Mul/Div) (Count: 2 ):
            Area = 0.329609 mm^2
            Peak Dynamic = 0.164024 W
            Subthreshold Leakage = 0.377405 W
            Subthreshold Leakage with power gating = 0.169832 W
            Gate Leakage = 0.0258148 W
            Runtime Dynamic = 0.149632 W

          Results Broadcast Bus:
            Area Overhead = 0.0160856 mm^2
            Peak Dynamic = 0.494761 W
            Subthreshold Leakage = 0.0610471 W
            Subthreshold Leakage with power gating = 0.0274712 W
            Gate Leakage = 0.00417567 W
            Runtime Dynamic = 0.0288605 W

    L2
    Area = 8.53752 mm^2
    Peak Dynamic = 0 W
    Subthreshold Leakage = 3.09305 W
    Subthreshold Leakage with power gating = 1.76176 W
    Gate Leakage = 0.135245 W
    Runtime Dynamic = 8.16364e-06 W

*****************************************************************************************
      First Level Directory
      Area = 0.29937 mm^2
      Peak Dynamic = 0.237898 W
      Subthreshold Leakage = 0.0545283 W
      Subthreshold Leakage with power gating = 0.0245377 W
      Gate Leakage = 0.00935703 W
      Runtime Dynamic = 0 W

*****************************************************************************************
      Second Level Directory
      Area = 5.13548 mm^2
      Peak Dynamic = 0.2427 W
      Subthreshold Leakage = 0.921432 W
      Subthreshold Leakage with power gating = 0.51927 W
      Gate Leakage = 0.0896356 W
      Runtime Dynamic = 0 W

*****************************************************************************************
Memory Controller:
      Area = 2.63891 mm^2
      Peak Dynamic = 2.33184 W
      Subthreshold Leakage = 0.542346 W
      Subthreshold Leakage with power gating = 0.147333 W
      Gate Leakage = 0.0195721 W
      Runtime Dynamic = 0.23324 W

      Front End Engine:
        Area = 0.0684342 mm^2
        Peak Dynamic = 0.272915 W
        Subthreshold Leakage = 0.0336077 W
        Subthreshold Leakage with power gating = 0.009974 W
        Gate Leakage = 0.00111792 W
        Runtime Dynamic = 0.0272948 W

      Transaction Engine:
        Area = 0.922674 mm^2
        Peak Dynamic = 1.58189 W
        Subthreshold Leakage = 0.182612 W
        Subthreshold Leakage with power gating = 0.0493052 W
        Gate Leakage = 0.00662413 W
        Runtime Dynamic = 0.158209 W

      PHY:
        Area = 1.6478 mm^2
        Peak Dynamic = 0.477028 W
        Subthreshold Leakage = 0.326126 W
        Subthreshold Leakage with power gating = 0.0880541 W
        Gate Leakage = 0.01183 W
        Runtime Dynamic = 0.0477359 W

*****************************************************************************************
