McPAT (version 1.3 of Feb, 2015) is computing the target processor...
 

McPAT (version 1.3 of Feb, 2015) results  (current print level is 5)
*****************************************************************************************
  Technology 32 nm
  Using Long Channel Devices When Appropriate
  Interconnect metal projection= aggressive interconnect technology projection
  Core clock Rate(MHz) 2000

*****************************************************************************************
Processor: 
  Area = 24.3481 mm^2
  Peak Power = 14.331 W
  Total Leakage = 8.06299 W
  Peak Dynamic = 6.26806 W
  Subthreshold Leakage = 7.60407 W
  Subthreshold Leakage with power gating = 3.83055 W
  Gate Leakage = 0.458911 W
  Runtime Dynamic = 1.79949 W

  Total Cores: 1 cores 
  Device Type= ITRS high performance device type
    Area = 16.2744 mm^2
    Peak Dynamic = 3.45562 W
    Subthreshold Leakage = 6.08577 W
    Subthreshold Leakage with power gating = 3.13941 W
    Gate Leakage = 0.340346 W
    Runtime Dynamic = 1.56626 W

  Total First Level Directory: 
  Device Type= ITRS high performance device type
    Area = 0.29937 mm^2
    Peak Dynamic = 0.237898 W
    Subthreshold Leakage = 0.0545283 W
    Subthreshold Leakage with power gating = 0.0245377 W
    Gate Leakage = 0.00935703 W
    Runtime Dynamic = 0 W

  Total Second Level Directory: 
  Device Type= ITRS high performance device type
    Area = 5.13548 mm^2
    Peak Dynamic = 0.2427 W
    Subthreshold Leakage = 0.921432 W
    Subthreshold Leakage with power gating = 0.51927 W
    Gate Leakage = 0.0896356 W
    Runtime Dynamic = 0 W

  Total MCs: 1 Memory Controllers 
  Device Type= ITRS high performance device type
    Area = 2.63891 mm^2
    Peak Dynamic = 2.33184 W
    Subthreshold Leakage = 0.542346 W
    Subthreshold Leakage with power gating = 0.147333 W
    Gate Leakage = 0.0195721 W
    Runtime Dynamic = 0.233231 W

*****************************************************************************************
Core:
      Area = 16.2744 mm^2
      Peak Dynamic = 3.45562 W
      Subthreshold Leakage = 6.08577 W
      Subthreshold Leakage with power gating = 3.13941 W
      Gate Leakage = 0.340346 W
      Runtime Dynamic = 1.56626 W

      Instruction Fetch Unit:
        Area = 0.590403 mm^2
        Peak Dynamic = 0.396694 W
        Subthreshold Leakage = 0.169395 W
        Subthreshold Leakage with power gating = 0.0865291 W
        Gate Leakage = 0.010083 W
        Runtime Dynamic = 0.183574 W

          Instruction Cache:
            Area = 0.359633 mm^2
            Peak Dynamic = 0.111026 W
            Subthreshold Leakage = 0.113947 W
            Subthreshold Leakage with power gating = 0.0575303 W
            Gate Leakage = 0.00628282 W
            Runtime Dynamic = 0.0181435 W

          Branch Target Buffer:
            Area = 0.180903 mm^2
            Peak Dynamic = 0.023281 W
            Subthreshold Leakage = 0.0321044 W
            Subthreshold Leakage with power gating = 0.0180023 W
            Gate Leakage = 0.00069797 W
            Runtime Dynamic = 0.0225426 W

          Branch Predictor:
            Area = 0.0143689 mm^2
            Peak Dynamic = 0.00493123 W
            Subthreshold Leakage = 0.0017045 W
            Subthreshold Leakage with power gating = 0.000931946 W
            Gate Leakage = 9.20327e-05 W
            Runtime Dynamic = 0.00122199 W

              Global Predictor:
                Area = 0.00201249 mm^2
                Peak Dynamic = 0.00063135 W
                Subthreshold Leakage = 0.000284916 W
                Subthreshold Leakage with power gating = 0.000156878 W
                Gate Leakage = 1.58429e-05 W
                Runtime Dynamic = 0.000289793 W

              Local Predictor:
              L1_Local Predictor:
                Area = 0.00201249 mm^2
                Peak Dynamic = 0.00063135 W
                Subthreshold Leakage = 0.000284916 W
                Subthreshold Leakage with power gating = 0.000156878 W
                Gate Leakage = 1.58429e-05 W
                Runtime Dynamic = 0.000289793 W

              L2_Local Predictor:
                Area = 0.00201249 mm^2
                Peak Dynamic = 0.00063135 W
                Subthreshold Leakage = 0.000284916 W
                Subthreshold Leakage with power gating = 0.000156878 W
                Gate Leakage = 1.58429e-05 W
                Runtime Dynamic = 0.000289793 W

              Chooser:
                Area = 0.00201249 mm^2
                Peak Dynamic = 0.00063135 W
                Subthreshold Leakage = 0.000284916 W
                Subthreshold Leakage with power gating = 0.000156878 W
                Gate Leakage = 1.58429e-05 W
                Runtime Dynamic = 0.000289793 W

              RAS:
                Area = 0.00631896 mm^2
                Peak Dynamic = 0.00240583 W
                Subthreshold Leakage = 0.000564834 W
                Subthreshold Leakage with power gating = 0.000304433 W
                Gate Leakage = 2.86612e-05 W
                Runtime Dynamic = 6.28199e-05 W

          Instruction Buffer:
            Area = 0.0100859 mm^2
            Peak Dynamic = 0.0844233 W
            Subthreshold Leakage = 0.00309057 W
            Subthreshold Leakage with power gating = 0.00171751 W
            Gate Leakage = 0.000133571 W
            Runtime Dynamic = 0.0403885 W

          Instruction Decoder:
            Area = 0.00607044 mm^2
            Peak Dynamic = 0.157383 W
            Subthreshold Leakage = 0.00264552 W
            Subthreshold Leakage with power gating = 0.00119048 W
            Gate Leakage = 0.00013906 W
            Runtime Dynamic = 0.075293 W

      Renaming Unit:
        Area = 0.101392 mm^2
        Peak Dynamic = 0.282811 W
        Subthreshold Leakage = 0.0194309 W
        Subthreshold Leakage with power gating = 0.00922056 W
        Gate Leakage = 0.00295099 W
        Runtime Dynamic = 0.143525 W

          Int Front End RAT with 1 internal checkpoints:
            Area = 0.0247999 mm^2
            Peak Dynamic = 0.1263 W
            Subthreshold Leakage = 0.000759962 W
            Subthreshold Leakage with power gating = 0.000447828 W
            Gate Leakage = 5.04707e-05 W
            Runtime Dynamic = 0.0348868 W

          FP Front End RAT with 1 internal checkpoints:
            Area = 0.00841877 mm^2
            Peak Dynamic = 0.060941 W
            Subthreshold Leakage = 0.00049712 W
            Subthreshold Leakage with power gating = 0.000286898 W
            Gate Leakage = 3.6501e-05 W
            Runtime Dynamic = 4.42263e-12 W

          Free List:
            Area = 0.0327751 mm^2
            Peak Dynamic = 0.0188071 W
            Subthreshold Leakage = 0.00142441 W
            Subthreshold Leakage with power gating = 0.000821818 W
            Gate Leakage = 7.58591e-05 W
            Runtime Dynamic = 0.00469906 W

          FP Free List:
            Area = 0.0160576 mm^2
            Peak Dynamic = 0.0141651 W
            Subthreshold Leakage = 0.000845959 W
            Subthreshold Leakage with power gating = 0.000507464 W
            Gate Leakage = 5.06108e-05 W
            Runtime Dynamic = 8.11264e-12 W

      Load Store Unit:
        Area = 1.99425 mm^2
        Peak Dynamic = 0.937133 W
        Subthreshold Leakage = 0.454439 W
        Subthreshold Leakage with power gating = 0.220038 W
        Gate Leakage = 0.0289009 W
        Runtime Dynamic = 0.199048 W

          Data Cache:
            Area = 1.53373 mm^2
            Peak Dynamic = 0.821424 W
            Subthreshold Leakage = 0.389547 W
            Subthreshold Leakage with power gating = 0.190837 W
            Gate Leakage = 0.0228379 W
            Runtime Dynamic = 0.0547657 W

          LoadQ:
            Area = 0.130821 mm^2
            Peak Dynamic = 0.0500297 W
            Subthreshold Leakage = 0.0244944 W
            Subthreshold Leakage with power gating = 0.0110225 W
            Gate Leakage = 0.00166272 W
            Runtime Dynamic = 0.0394325 W

          StoreQ:
            Area = 0.130821 mm^2
            Peak Dynamic = 0.0500297 W
            Subthreshold Leakage = 0.0244944 W
            Subthreshold Leakage with power gating = 0.0110225 W
            Gate Leakage = 0.00166272 W
            Runtime Dynamic = 0.0788649 W

      Memory Management Unit:
        Area = 0.124155 mm^2
        Peak Dynamic = 0.0553924 W
        Subthreshold Leakage = 0.0368877 W
        Subthreshold Leakage with power gating = 0.0165994 W
        Runtime Dynamic = 0.0649618 W

          Itlb:
            Area = 0.0250813 mm^2
            Peak Dynamic = 0.00439104 W
            Subthreshold Leakage = 0.00613921 W
            Subthreshold Leakage with power gating = 0.00276265 W
            Gate Leakage = 0.000387445 W
            Runtime Dynamic = 0 W

          Dtlb:
            Area = 0.079733 mm^2
            Peak Dynamic = 0.0118773 W
            Subthreshold Leakage = 0.014845 W
            Subthreshold Leakage with power gating = 0.00668025 W
            Gate Leakage = 0.000967156 W
            Runtime Dynamic = 0 W

      Execution Unit:
        Area = 2.43634 mm^2
        Peak Dynamic = 1.78359 W
        Subthreshold Leakage = 0.886859 W
        Subthreshold Leakage with power gating = 0.40369 W
        Runtime Dynamic = 0.975141 W

          Register Files:
            Area = 0.660065 mm^2
            Peak Dynamic = 0.574319 W
            Subthreshold Leakage = 0.0295922 W
            Subthreshold Leakage with power gating = 0.0167642 W
            Gate Leakage = 0.00145416 W
            Runtime Dynamic = 0.0897199 W

              Integer RF:
                Area = 0.330033 mm^2
                Peak Dynamic = 0.454511 W
                Subthreshold Leakage = 0.0147961 W
                Subthreshold Leakage with power gating = 0.0083821 W
                Gate Leakage = 0.00072708 W
                Runtime Dynamic = 0.0897199 W

              Floating Point RF:
                Area = 0.330033 mm^2
                Peak Dynamic = 0.119808 W
                Subthreshold Leakage = 0.0147961 W
                Subthreshold Leakage with power gating = 0.0083821 W
                Gate Leakage = 0.00072708 W
                Runtime Dynamic = 1.22101e-10 W

          Instruction Scheduler:
            Area = 0.182335 mm^2
            Peak Dynamic = 0.301866 W
            Subthreshold Leakage = 0.0174385 W
            Subthreshold Leakage with power gating = 0.00900281 W
            Gate Leakage = 0.00100637 W
            Runtime Dynamic = 0.20643 W

              Instruction Window:
                Area = 0.0275019 mm^2
                Peak Dynamic = 0.0618837 W
                Subthreshold Leakage = 0.00368759 W
                Subthreshold Leakage with power gating = 0.00165942 W
                Gate Leakage = 0.00027166 W
                Runtime Dynamic = 0.0479385 W

              FP Instruction Window:
                Area = 0.0273636 mm^2
                Peak Dynamic = 0.0532942 W
                Subthreshold Leakage = 0.00484979 W
                Subthreshold Leakage with power gating = 0.0021824 W
                Gate Leakage = 0.000348678 W
                Runtime Dynamic = 0 W

              ROB:
                Area = 0.12747 mm^2
                Peak Dynamic = 0.186688 W
                Subthreshold Leakage = 0.00890109 W
                Subthreshold Leakage with power gating = 0.00516099 W
                Gate Leakage = 0.000386037 W
                Runtime Dynamic = 0.158491 W

          Integer ALUs (Count: 1 ):
            Area = 0.0549349 mm^2
            Peak Dynamic = 0.164499 W
            Subthreshold Leakage = 0.0629008 W
            Subthreshold Leakage with power gating = 0.0283054 W
            Gate Leakage = 0.00430246 W
            Runtime Dynamic = 0.244456 W

          Floating Point Units (FPUs) (Count: 1 ):
            Area = 1.17785 mm^2
            Peak Dynamic = 0.148049 W
            Subthreshold Leakage = 0.337162 W
            Subthreshold Leakage with power gating = 0.151723 W
            Gate Leakage = 0.0230621 W
            Runtime Dynamic = 0.166873 W

          Complex ALUs (Mul/Div) (Count: 2 ):
            Area = 0.329609 mm^2
            Peak Dynamic = 0.164024 W
            Subthreshold Leakage = 0.377405 W
            Subthreshold Leakage with power gating = 0.169832 W
            Gate Leakage = 0.0258148 W
            Runtime Dynamic = 0.144358 W

          Results Broadcast Bus:
            Area Overhead = 0.0122035 mm^2
            Peak Dynamic = 0.368236 W
            Subthreshold Leakage = 0.0464568 W
            Subthreshold Leakage with power gating = 0.0209056 W
            Gate Leakage = 0.00317768 W
            Runtime Dynamic = 0.0193647 W

    L2
    Area = 8.53752 mm^2
    Peak Dynamic = 0 W
    Subthreshold Leakage = 3.09305 W
    Subthreshold Leakage with power gating = 1.76176 W
    Gate Leakage = 0.135245 W
    Runtime Dynamic = 6.88159e-06 W

*****************************************************************************************
      First Level Directory
      Area = 0.29937 mm^2
      Peak Dynamic = 0.237898 W
      Subthreshold Leakage = 0.0545283 W
      Subthreshold Leakage with power gating = 0.0245377 W
      Gate Leakage = 0.00935703 W
      Runtime Dynamic = 0 W

*****************************************************************************************
      Second Level Directory
      Area = 5.13548 mm^2
      Peak Dynamic = 0.2427 W
      Subthreshold Leakage = 0.921432 W
      Subthreshold Leakage with power gating = 0.51927 W
      Gate Leakage = 0.0896356 W
      Runtime Dynamic = 0 W

*****************************************************************************************
Memory Controller:
      Area = 2.63891 mm^2
      Peak Dynamic = 2.33184 W
      Subthreshold Leakage = 0.542346 W
      Subthreshold Leakage with power gating = 0.147333 W
      Gate Leakage = 0.0195721 W
      Runtime Dynamic = 0.233231 W

      Front End Engine:
        Area = 0.0684342 mm^2
        Peak Dynamic = 0.272915 W
        Subthreshold Leakage = 0.0336077 W
        Subthreshold Leakage with power gating = 0.009974 W
        Gate Leakage = 0.00111792 W
        Runtime Dynamic = 0.0272943 W

      Transaction Engine:
        Area = 0.922674 mm^2
        Peak Dynamic = 1.58189 W
        Subthreshold Leakage = 0.182612 W
        Subthreshold Leakage with power gating = 0.0493052 W
        Gate Leakage = 0.00662413 W
        Runtime Dynamic = 0.158206 W

      PHY:
        Area = 1.6478 mm^2
        Peak Dynamic = 0.477028 W
        Subthreshold Leakage = 0.326126 W
        Subthreshold Leakage with power gating = 0.0880541 W
        Gate Leakage = 0.01183 W
        Runtime Dynamic = 0.0477308 W

*****************************************************************************************
